@<TRIPOS>MOLECULE
alexa488_r48
83 87 0 0 0
SMALL
NO_CHARGES

@<TRIPOS>ATOM
     1 C1           2.4020   -15.0050    10.9980 C.3      1 A48 0.0000
     2 C6           2.3950   -14.7930     9.6180 C.3      1 A48 0.0000
     3 C5           1.8970   -13.6170     9.0470 C.3      1 A48 0.0000
     4 C4           1.3730   -12.6450     9.9070 C.3      1 A48 0.0000
     5 C3           1.4000   -12.8260    11.2910 C.3      1 A48 0.0000
     6 H11          1.0420   -12.0410    11.9580 H        1 A48 0.0000
     7 H10          0.9540   -11.7220     9.5210 H        1 A48 0.0000
     8 C7           1.9080   -13.3650     7.6680 C.3      1 A48 0.0000
     9 C8           2.4320   -14.3850     6.8620 C.3      1 A48 0.0000
    10 C9           2.9370   -15.5620     7.4260 C.3      1 A48 0.0000
    11 O91          2.9780   -15.7250     8.7810 O.3      1 A48 0.0000
    12 C10          3.4480   -16.5550     6.5810 C.3      1 A48 0.0000
    13 C13          3.4550   -16.3390     5.1990 C.3      1 A48 0.0000
    14 C12          2.8990   -15.1880     4.6460 C.3      1 A48 0.0000
    15 C11          2.3480   -14.2120     5.4820 C.3      1 A48 0.0000
    16 H8           1.9300   -13.3350     4.9930 H        1 A48 0.0000
    17 H9           2.9110   -15.0780     3.5640 H        1 A48 0.0000
    18 N1           4.0880   -17.1830     4.3370 N.3      1 A48 0.0000
    19 H1           4.6530   -17.9450     4.6850 H        1 A48 0.0000
    20 H2           4.3100   -16.8480     3.4030 H        1 A48 0.0000
    21 S1           4.1590   -18.0020     7.2810 S.3      1 A48 0.0000
    22 O92          4.7570   -18.8740     6.3090 O.3      1 A48 0.0000
    23 O3           4.9070   -17.7230     8.4800 O.3      1 A48 0.0000
    24 O4           3.0720   -18.4650     8.0900 O.3      1 A48 0.0000
    25 C14          1.3300   -12.1590     7.1330 C.3      1 A48 0.0000
    26 C15         -0.0350   -12.2030     6.7940 C.3      1 A48 0.0000
    27 C16         -0.7060   -11.1160     6.2360 C.3      1 A48 0.0000
    28 C17          0.0320    -9.9350     6.1180 C.3      1 A48 0.0000
    29 C18          1.3880    -9.8820     6.4610 C.3      1 A48 0.0000
    30 C19          2.0840   -10.9890     6.9360 C.3      1 A48 0.0000
    31 C20          3.5280   -10.9180     7.1430 C.3      1 A48 0.0000
    32 O8           4.1570    -9.9120     6.8570 O.3      1 A48 0.0000
    33 O9           4.1900   -11.8510     7.5420 O.3      1 A48 0.0000
    34 H7           1.9530    -8.9660     6.3350 H        1 A48 0.0000
    35 C99         -0.5890    -8.7330     5.5850 C.3      1 A48 0.0000
    36 O10          0.0170    -7.6780     5.5290 O.3      1 A48 0.0000
    37 H5          -1.7430   -11.2250     5.9210 H        1 A48 0.0000
    38 H6          -0.5610   -13.1420     6.9420 H        1 A48 0.0000
    39 S2           3.0070   -16.4710    11.7520 S.3      1 A48 0.0000
    40 O5           2.4000   -17.4850    10.9300 O.3      1 A48 0.0000
    41 O6           2.8270   -16.5440    13.1770 O.3      1 A48 0.0000
    42 O7           4.3130   -16.6400    11.1850 O.3      1 A48 0.0000
    43 C2           1.9550   -13.9820    11.8310 C.3      1 A48 0.0000
    44 N2           1.8470   -14.0980    13.1870 N.3      1 A48 0.0000
    45 H3           2.2970   -14.8540    13.7000 H        1 A48 0.0000
    46 H4           1.3490   -13.4140    13.7360 H        1 A48 0.0000
    47 CA           0.0000     0.0000     0.0000 C.3      1 C1R 0.0000
    48 HA          -0.3950    -0.4380    -0.9250 H        1 C1R 0.0000
    49 C           -0.6570     1.3740    -0.0000 C.3      1 C1R 0.0000
    50 O           -1.8810     1.5250    -0.0500 O.3      1 C1R 0.0000
    51 C6          -0.5160    -0.9260     1.1110 C.3      1 C1R 0.0000
    52 H10         -1.5950    -0.9270     1.2460 H        1 C1R 0.0000
    53 H11         -0.2290    -0.5690     2.1040 H        1 C1R 0.0000
    54 S1           0.0370    -2.6340     0.8340 S.3      1 C1R 0.0000
    55 C7          -0.7780    -3.3590    -0.6180 C.3      1 C1R 0.0000
    56 C8           0.1080    -4.1880    -1.5660 C.3      1 C1R 0.0000
    57 H12          1.0660    -4.4320    -1.0950 H        1 C1R 0.0000
    58 C9          -0.6350    -5.4940    -1.6740 C.3      1 C1R 0.0000
    59 O3          -0.2720    -6.5570    -2.1530 O.3      1 C1R 0.0000
    60 N3          -1.7010    -5.4690    -0.8660 N.3      1 C1R 0.0000
    61 C10         -1.8210    -4.3430    -0.1360 C.3      1 C1R 0.0000
    62 O4          -2.7280    -4.0370     0.6150 O.3      1 C1R 0.0000
    63 C11         -2.6410    -6.5830    -0.7670 C.3      1 C1R 0.0000
    64 H13         -3.5820    -6.0510    -0.6510 H        1 C1R 0.0000
    65 H14         -2.7350    -7.0560    -1.7460 H        1 C1R 0.0000
    66 C12         -2.3820    -7.6790     0.2830 C.3      1 C1R 0.0000
    67 H15         -3.0110    -8.5030    -0.0350 H        1 C1R 0.0000
    68 H16         -1.3310    -7.9650     0.2800 H        1 C1R 0.0000
    69 C13         -2.6270    -7.2610     1.7380 C.3      1 C1R 0.0000
    70 H17         -3.6810    -7.0910     1.9550 H        1 C1R 0.0000
    71 H18         -2.0920    -6.3020     1.7700 H        1 C1R 0.0000
    72 C14         -2.1240    -8.3230     2.7340 C.3      1 C1R 0.0000
    73 H19         -2.6370    -9.2600     2.5210 H        1 C1R 0.0000
    74 H20         -1.0470    -8.4940     2.7490 H        1 C1R 0.0000
    75 C15         -2.4450    -7.8470     4.1470 C.3      1 C1R 0.0000
    76 H21         -3.5150    -7.8010     4.4080 H        1 C1R 0.0000
    77 H22         -1.9630    -6.8590     4.1850 H        1 C1R 0.0000
    78 N99         -1.8300    -8.7910     5.0770 N.3      1 C1R 0.0000
    79 H23         -2.2920    -9.6790     4.9200 H        1 C1R 0.0000
    80 N            1.4470    -0.0000     0.0000 N.3      1 C1R 0.0000
    81 H            1.9010     0.2480     0.8630 H        1 C1R 0.0000
    82 HX2         -1.3780    -2.6590    -1.2060 H        1 C1R 0.0000
    83 HX3          0.1990    -3.6160    -2.4910 H        1 C1R 0.0000
@<TRIPOS>BOND
     1      1      2 1
     2      1     39 1
     3      1     43 1
     4      2      3 1
     5      2     11 1
     6      3      4 1
     7      3      8 1
     8      4      5 1
     9      4      7 1
    10      5      6 1
    11      5     43 1
    12      8      9 1
    13      8     25 1
    14      9     10 1
    15      9     15 1
    16     10     11 1
    17     10     12 1
    18     12     13 1
    19     12     21 1
    20     13     14 1
    21     13     18 1
    22     14     15 1
    23     14     17 1
    24     15     16 1
    25     18     19 1
    26     18     20 1
    27     21     22 1
    28     21     23 1
    29     21     24 1
    30     25     26 1
    31     25     30 1
    32     26     27 1
    33     26     38 1
    34     27     28 1
    35     27     37 1
    36     28     29 1
    37     28     35 1
    38     29     30 1
    39     29     34 1
    40     30     31 1
    41     31     32 1
    42     31     33 1
    43     35     36 1
    44     35     78 1
    45     39     40 1
    46     39     41 1
    47     39     42 1
    48     43     44 1
    49     44     45 1
    50     44     46 1
    51     47     48 1
    52     47     49 1
    53     47     51 1
    54     47     80 1
    55     49     50 1
    56     51     52 1
    57     51     53 1
    58     51     54 1
    59     54     55 1
    60     55     56 1
    61     55     61 1
    62     55     82 1
    63     56     57 1
    64     56     58 1
    65     56     83 1
    66     58     59 1
    67     58     60 1
    68     60     61 1
    69     60     63 1
    70     61     62 1
    71     63     64 1
    72     63     65 1
    73     63     66 1
    74     66     67 1
    75     66     68 1
    76     66     69 1
    77     69     70 1
    78     69     71 1
    79     69     72 1
    80     72     73 1
    81     72     74 1
    82     72     75 1
    83     75     76 1
    84     75     77 1
    85     75     78 1
    86     78     79 1
    87     80     81 1
