@<TRIPOS>MOLECULE
atto655
70 74 0 0 0
SMALL
NO_CHARGES

@<TRIPOS>ATOM
     1 H37         -8.3010    -0.3420     2.0320 H        1 DDS 0.0000
     2 C28         -7.3370    -0.6410     1.5430 C.3      1 DDS 0.0000
     3 H36         -7.2540    -1.7570     1.6050 H        1 DDS 0.0000
     4 C27         -6.1720     0.0060     2.2540 C.3      1 DDS 0.0000
     5 H34         -6.3840     1.1020     2.4030 H        1 DDS 0.0000
     6 H35         -6.0550    -0.4510     3.2730 H        1 DDS 0.0000
     7 C26         -4.9020    -0.1290     1.4860 C.3      1 DDS 0.0000
     8 C3          -4.9340    -0.2650     0.0510 C.3      1 DDS 0.0000
     9 N1          -6.1330    -0.4170    -0.6190 N.3      1 DDS 0.0000
    10 C29         -7.3810    -0.2000     0.0860 C.3      1 DDS 0.0000
    11 H38         -8.1840    -0.7850    -0.4490 H        1 DDS 0.0000
    12 H39         -7.6590     0.8940     0.0360 H        1 DDS 0.0000
    13 C2          -6.1970    -0.3300    -2.0640 C.3      1 DDS 0.0000
    14 H4          -7.2060    -0.7230    -2.3810 H        1 DDS 0.0000
    15 H5          -5.4220    -1.0290    -2.4940 H        1 DDS 0.0000
    16 C1          -6.0070     1.0590    -2.6540 C.3      1 DDS 0.0000
    17 H1          -6.1080     0.9940    -3.7640 H        1 DDS 0.0000
    18 H2          -6.7740     1.7700    -2.2660 H        1 DDS 0.0000
    19 H3          -4.9940     1.4630    -2.4110 H        1 DDS 0.0000
    20 C4          -3.6990    -0.3020    -0.6410 C.3      1 DDS 0.0000
    21 H6          -3.6430    -0.3610    -1.7390 H        1 DDS 0.0000
    22 C5          -2.5070    -0.2520     0.0770 C.3      1 DDS 0.0000
    23 C6          -2.4590    -0.1500     1.4950 C.3      1 DDS 0.0000
    24 C25         -3.7070    -0.0850     2.1720 C.3      1 DDS 0.0000
    25 H33         -3.7100     0.0140     3.2710 H        1 DDS 0.0000
    26 N2          -1.2630    -0.0810     2.1850 N.3      1 DDS 0.0000
    27 C7          -0.1550    -0.1340     1.4670 C.3      1 DDS 0.0000
    28 C8          -0.1530    -0.2800     0.0070 C.3      1 DDS 0.0000
    29 O1          -1.3490    -0.3040    -0.6840 O.3      1 DDS 0.0000
    30 C9           0.9830    -0.4320    -0.7400 C.3      1 DDS 0.0000
    31 H7           0.9050    -0.4430    -1.8400 H        1 DDS 0.0000
    32 C10          2.2590    -0.5110    -0.0720 C.3      1 DDS 0.0000
    33 C11          2.2980    -0.0940     1.3380 C.3      1 DDS 0.0000
    34 C12          1.1610     0.0360     2.0650 C.3      1 DDS 0.0000
    35 H8           1.2050     0.3380     3.1260 H        1 DDS 0.0000
    36 C13          3.6120     0.3430     1.9120 C.3      1 DDS 0.0000
    37 H9           3.6390    -0.0100     2.9860 H        1 DDS 0.0000
    38 C24          3.6850     1.8590     1.9110 C.3      1 DDS 0.0000
    39 H31          4.6100     2.1560     2.4670 H        1 DDS 0.0000
    40 H32          2.8200     2.2610     2.4940 H        1 DDS 0.0000
    41 S1           3.7270     2.7050     0.3340 S.3      1 DDS 0.0000
    42 O3           3.1930     3.9690     0.6020 O.3      1 DDS 0.0000
    43 O4           2.9220     1.9040    -0.5460 O.3      1 DDS 0.0000
    44 O5           5.0760     2.6520    -0.0720 O.3      1 DDS 0.0000
    45 C14          4.8220    -0.2450     1.2000 C.3      1 DDS 0.0000
    46 H10          5.3540     0.5640     0.6180 H        1 DDS 0.0000
    47 H11          5.5470    -0.6290     1.9650 H        1 DDS 0.0000
    48 C15          4.4990    -1.4020     0.2340 C.3      1 DDS 0.0000
    49 C22          5.7920    -1.7000    -0.5400 C.3      1 DDS 0.0000
    50 H25          6.0550    -0.8610    -1.2280 H        1 DDS 0.0000
    51 H26          6.6210    -1.8160     0.2010 H        1 DDS 0.0000
    52 H27          5.7100    -2.6500    -1.1190 H        1 DDS 0.0000
    53 C23          4.1600    -2.6640     1.0520 C.3      1 DDS 0.0000
    54 H28          5.0480    -2.9380     1.6710 H        1 DDS 0.0000
    55 H29          3.2970    -2.4720     1.7340 H        1 DDS 0.0000
    56 H30          3.9140    -3.5210     0.3830 H        1 DDS 0.0000
    57 N3           3.3530    -1.0550    -0.6440 N.3      1 DDS 0.0000
    58 C16          3.4960    -1.1620    -2.0890 C.3      1 DDS 0.0000
    59 H12          4.1390    -2.0610    -2.3090 H        1 DDS 0.0000
    60 H13          2.4830    -1.3800    -2.5360 H        1 DDS 0.0000
    61 C17          4.1020     0.0810    -2.7540 C.3      1 DDS 0.0000
    62 H14          4.1040     0.9600    -2.0450 H        1 DDS 0.0000
    63 H15          5.1730    -0.1310    -3.0130 H        1 DDS 0.0000
    64 C18          3.3780     0.4640    -4.0240 C.3      1 DDS 0.0000
    65 H16          3.5170    -0.3280    -4.8080 H        1 DDS 0.0000
    66 H17          3.8190     1.4190    -4.4180 H        1 DDS 0.0000
    67 C19          1.9040     0.6740    -3.8360 C.3      1 DDS 0.0000
    68 O2           1.0200     0.0240    -4.4090 O.3      1 DDS 0.0000
    69 O3           1.4260     1.6430    -3.0200 O.3      1 DDS 0.0000
    70 H18          2.1230     1.9830    -2.4240 H        1 DDS 0.0000
@<TRIPOS>BOND
     1      1      2 1
     2      2      3 1
     3      2      4 1
     4      2     10 1
     5      4      5 1
     6      4      6 1
     7      4      7 1
     8      7      8 1
     9      7     24 1
    10      8      9 1
    11      8     20 1
    12      9     10 1
    13      9     13 1
    14     10     11 1
    15     10     12 1
    16     13     14 1
    17     13     15 1
    18     13     16 1
    19     16     17 1
    20     16     18 1
    21     16     19 1
    22     20     21 1
    23     20     22 1
    24     22     23 1
    25     22     29 1
    26     23     24 1
    27     23     26 1
    28     24     25 1
    29     26     27 1
    30     27     28 1
    31     27     34 1
    32     28     29 1
    33     28     30 1
    34     30     31 1
    35     30     32 1
    36     32     33 1
    37     32     57 1
    38     33     34 1
    39     33     36 1
    40     34     35 1
    41     36     37 1
    42     36     38 1
    43     36     45 1
    44     38     39 1
    45     38     40 1
    46     38     41 1
    47     41     42 1
    48     41     43 1
    49     41     44 1
    50     45     46 1
    51     45     47 1
    52     45     48 1
    53     48     49 1
    54     48     53 1
    55     48     57 1
    56     49     50 1
    57     49     51 1
    58     49     52 1
    59     53     54 1
    60     53     55 1
    61     53     56 1
    62     57     58 1
    63     58     59 1
    64     58     60 1
    65     58     61 1
    66     61     62 1
    67     61     63 1
    68     61     64 1
    69     64     65 1
    70     64     66 1
    71     64     67 1
    72     67     68 1
    73     67     69 1
    74     69     70 1
