@<TRIPOS>MOLECULE
cx4
68 72 0 0 0
SMALL
NO_CHARGES

@<TRIPOS>ATOM
     1 S1           0.0470    -5.2260     1.9030 S.3      1 CX4 0.0000
     2 S2           5.3280     0.0470     1.8270 S.3      1 CX4 0.0000
     3 S3          -5.3270    -0.0450     1.8280 S.3      1 CX4 0.0000
     4 S4          -0.0480     5.2220     1.9050 S.3      1 CX4 0.0000
     5 O5           0.0170    -1.9090    -2.9660 O.3      1 CX4 0.0000
     6 O6           1.8750     0.0170    -2.9460 O.3      1 CX4 0.0000
     7 O7          -1.8750    -0.0170    -2.9470 O.3      1 CX4 0.0000
     8 O8          -0.0170     1.9100    -2.9670 O.3      1 CX4 0.0000
     9 O9           0.0330    -4.1890     3.1670 O.3      1 CX4 0.0000
    10 O10          4.3260     0.0440     3.1190 O.3      1 CX4 0.0000
    11 O11         -4.3240    -0.0290     3.1190 O.3      1 CX4 0.0000
    12 O12         -0.0450     4.1830     3.1670 O.3      1 CX4 0.0000
    13 O13         -1.2100    -5.9590     1.9420 O.3      1 CX4 0.0000
    14 O14          1.3180    -5.9330     1.9130 O.3      1 CX4 0.0000
    15 O15          6.0550    -1.2140     1.8510 O.3      1 CX4 0.0000
    16 O16          6.0410     1.3150     1.8120 O.3      1 CX4 0.0000
    17 O17         -6.0610     1.2120     1.8450 O.3      1 CX4 0.0000
    18 O18         -6.0320    -1.3170     1.8190 O.3      1 CX4 0.0000
    19 O19          1.2130     5.9480     1.9510 O.3      1 CX4 0.0000
    20 O20         -1.3150     5.9360     1.9110 O.3      1 CX4 0.0000
    21 C21          2.5490    -2.5040    -1.8180 C.3      1 CX4 0.0000
    22 C22         -2.5040    -2.5490    -1.8170 C.3      1 CX4 0.0000
    23 C23          2.5050     2.5490    -1.8180 C.3      1 CX4 0.0000
    24 C24         -2.5490     2.5040    -1.8190 C.3      1 CX4 0.0000
    25 C25          1.2470    -2.9820    -1.2240 C.3      1 CX4 0.0000
    26 C26          3.0210    -1.1940    -1.2370 C.3      1 CX4 0.0000
    27 C27         -2.9990    -1.2470    -1.2370 C.3      1 CX4 0.0000
    28 C28          1.1940     3.0040    -1.2240 C.3      1 CX4 0.0000
    29 C29         -1.1940    -3.0040    -1.2230 C.3      1 CX4 0.0000
    30 C30          3.0000     1.2470    -1.2370 C.3      1 CX4 0.0000
    31 C31         -3.0210     1.1940    -1.2380 C.3      1 CX4 0.0000
    32 C32         -1.2470     2.9830    -1.2250 C.3      1 CX4 0.0000
    33 C33          0.0230    -2.5880    -1.7830 C.3      1 CX4 0.0000
    34 C34          2.5900     0.0230    -1.7860 C.3      1 CX4 0.0000
    35 C35         -2.5890    -0.0230    -1.7860 C.3      1 CX4 0.0000
    36 C36         -0.0230     2.5880    -1.7840 C.3      1 CX4 0.0000
    37 C37          1.2430    -3.7970    -0.0840 C.3      1 CX4 0.0000
    38 C38          3.8660    -1.1740    -0.1210 C.3      1 CX4 0.0000
    39 C39         -3.8450    -1.2420    -0.1210 C.3      1 CX4 0.0000
    40 C40          1.1750     3.8170    -0.0840 C.3      1 CX4 0.0000
    41 C41         -1.1750    -3.8180    -0.0840 C.3      1 CX4 0.0000
    42 C42          3.8450     1.2430    -0.1210 C.3      1 CX4 0.0000
    43 C43         -3.8660     1.1750    -0.1220 C.3      1 CX4 0.0000
    44 C44         -1.2430     3.7960    -0.0850 C.3      1 CX4 0.0000
    45 C45          0.0380    -4.2140     0.4800 C.3      1 CX4 0.0000
    46 C46          4.2770     0.0380     0.4320 C.3      1 CX4 0.0000
    47 C47         -4.2770    -0.0360     0.4320 C.3      1 CX4 0.0000
    48 C48         -0.0380     4.2130     0.4800 C.3      1 CX4 0.0000
    49 H49          3.3160    -3.2650    -1.6110 H        1 CX4 0.0000
    50 H50          2.5400    -2.4850    -2.9130 H        1 CX4 0.0000
    51 H51         -2.4800    -2.5490    -2.9120 H        1 CX4 0.0000
    52 H52         -3.2590    -3.3220    -1.6080 H        1 CX4 0.0000
    53 H53          3.2590     3.3230    -1.6090 H        1 CX4 0.0000
    54 H54          2.4800     2.5490    -2.9130 H        1 CX4 0.0000
    55 H55         -2.5400     2.4850    -2.9150 H        1 CX4 0.0000
    56 H56         -3.3160     3.2660    -1.6120 H        1 CX4 0.0000
    57 H57          2.1900    -4.0900     0.3600 H        1 CX4 0.0000
    58 H58          4.1890    -2.1160     0.3160 H        1 CX4 0.0000
    59 H59         -4.1500    -2.1890     0.3170 H        1 CX4 0.0000
    60 H60          2.1160     4.1280     0.3620 H        1 CX4 0.0000
    61 H61         -2.1160    -4.1290     0.3620 H        1 CX4 0.0000
    62 H62          4.1500     2.1910     0.3160 H        1 CX4 0.0000
    63 H63         -4.1880     2.1170     0.3150 H        1 CX4 0.0000
    64 H64         -2.1900     4.0890     0.3600 H        1 CX4 0.0000
    65 H65          0.8960    -1.6070    -3.2250 H        1 CX4 0.0000
    66 H66          1.6140     0.9030    -3.2300 H        1 CX4 0.0000
    67 H67         -1.6140    -0.9030    -3.2300 H        1 CX4 0.0000
    68 H68         -0.8960     1.6060    -3.2260 H        1 CX4 0.0000
@<TRIPOS>BOND
     1 1 9 1
     2 1 13 1
     3 1 14 1
     4 1 45 1
     5 2 10 1
     6 2 15 1
     7 2 16 1
     8 2 46 1
     9 3 11 1
    10 3 17 1
    11 3 18 1
    12 3 47 1
    13 4 12 1
    14 4 19 1
    15 4 20 1
    16 4 48 1
    17 5 33 1
    18 5 65 1
    19 6 34 1
    20 6 66 1
    21 7 35 1
    22 7 67 1
    23 8 36 1
    24 8 68 1
    25 21 25 1
    26 21 26 1
    27 21 49 1
    28 21 50 1
    29 22 27 1
    30 22 29 1
    31 22 51 1
    32 22 52 1
    33 23 28 1
    34 23 30 1
    35 23 53 1
    36 23 54 1
    37 24 31 1
    38 24 32 1
    39 24 55 1
    40 24 56 1
    41 25 33 1
    42 25 37 1
    43 26 34 1
    44 26 38 1
    45 27 35 1
    46 27 39 1
    47 28 36 1
    48 28 40 1
    49 29 33 1
    50 29 41 1
    51 30 34 1
    52 30 42 1
    53 31 35 1
    54 31 43 1
    55 32 36 1
    56 32 44 1
    57 37 45 1
    58 37 57 1
    59 38 46 1
    60 38 58 1
    61 39 47 1
    62 39 59 1
    63 40 48 1
    64 40 60 1
    65 41 45 1
    66 41 61 1
    67 42 46 1
    68 42 62 1
    69 43 47 1
    70 43 63 1
    71 44 48 1
    72 44 64 1
